55
Properties=species:S:1:pos:R:3:forces:R:3 energy=-54091.948141 pbc="F F F"
Ag       0.00055009      -0.00662805       0.20921846       0.00573100       0.02416200      -0.03196100
Ag      -0.00209244       0.00469977       3.37030370      -0.00227800      -0.00456500       0.01472800
Ag       0.88223976      -2.70100204       1.61846659       0.00158700      -0.00227000       0.00933300
Ag      -2.30512401      -1.66841746       1.61661034       0.00050900      -0.00004900       0.00672600
Ag      -2.30135037       1.66740117       1.61517442      -0.00199400       0.00107900       0.00258600
Ag       0.88089076       2.69917275       1.61517378       0.00173100      -0.00227300      -0.00162100
Ag       2.84609998       0.00120862       1.61553523      -0.00616400       0.00062300       0.00323800
Ag      -0.88046915      -2.69419583      -1.21953690      -0.00252200      -0.00605600      -0.00930800
Ag      -2.83493791       0.00089944      -1.21836215      -0.00194900       0.00283200      -0.00882100
Ag      -0.87922182       2.69262734      -1.21595566       0.00483600      -0.00861400      -0.00239000
Ag       2.29433685       1.66330687      -1.21697601      -0.00912600      -0.00385700      -0.00263900
Ag       2.29709903      -1.66402097      -1.21842231       0.00039100       0.00378400      -0.00726900
Ag       0.00214169       0.00416767      -2.97159147       0.00530400       0.00260700       0.02183000
Ag      -0.00181244      -0.00025758       6.44151725      -0.00278000      -0.00107200      -0.08652600
Ag       0.89453184      -2.74521573       4.87871780       0.00882700      -0.01357800       0.02434200
Ag      -2.34373116      -1.69212248       4.87901232      -0.03006700       0.02403400       0.02741200
Ag      -2.34447122       1.69217826       4.87921178      -0.03634000      -0.02474800       0.02766600
Ag       0.89499305       2.74594323       4.87897241       0.01621600       0.01637600       0.02610300
Ag       2.89238758      -0.00019066       4.87768305       0.01370300      -0.00091400       0.01929800
Ag       3.79532085      -2.74919571       3.08221713       0.04049100      -0.02938100      -0.01424900
Ag       1.72887674      -5.30773438       2.98738755      -0.01917000       0.07624100      -0.03795600
Ag      -1.44586683      -4.44929230       3.08585256      -0.00147200      -0.02475900       0.00494600
Ag      -4.52409588      -3.27545078       2.98690865       0.05508600       0.05104800      -0.04025000
Ag      -4.68888008       0.00022577       3.07940828      -0.05513500       0.00125900      -0.01331800
Ag      -4.52396127       3.27524541       2.98678568       0.05795400      -0.05307000      -0.04205100
Ag      -1.44585047       4.44899977       3.08563246      -0.00314700       0.02559500       0.00271100
Ag       1.72894951       5.30776858       2.98753684      -0.02040900      -0.07997300      -0.03932100
Ag       3.79504823       2.74928512       3.08212818       0.03879300       0.03050000      -0.01447000
Ag       5.59118067      -0.00007565       2.98466067      -0.06968400      -0.00023600      -0.03959400
Ag       3.24020001      -4.44424622       0.20245660       0.04602600      -0.01215600       0.02235800
Ag      -0.00059078      -5.49786888       0.19934547      -0.00112700      -0.03427800      -0.00077100
Ag      -3.23932898      -4.44514654       0.19627352      -0.04433000      -0.01332100      -0.02336300
Ag      -5.23805983      -1.68972998       0.20094983      -0.05140700       0.01599900       0.01293600
Ag      -5.23775398       1.68971767       0.20119178      -0.05011400      -0.01593300       0.01434900
Ag      -3.23943065       4.44498555       0.19631902      -0.04408500       0.01210700      -0.02367500
Ag      -0.00054914       5.49795285       0.19935295      -0.00097800       0.03364700      -0.00102000
Ag       3.24024636       4.44411275       0.20239123       0.04541900       0.01097900       0.02257800
Ag       5.23759137       1.69107588       0.19722080       0.05172900      -0.01265000      -0.01645100
Ag       5.23784099      -1.69109428       0.19745003       0.05143200       0.01306300      -0.01521200
Ag       1.44583150      -4.44892019      -2.68516813       0.00145700      -0.02495300      -0.00392600
Ag      -1.72849647      -5.30669831      -2.58664799       0.02046900       0.07875200       0.03949300
Ag      -3.79522533      -2.74887789      -2.68152651      -0.04068300      -0.02928800       0.01788600
Ag      -5.58963147      -0.00004324      -2.58351280       0.07375700       0.00001800       0.04247100
Ag      -3.79520060       2.74907247      -2.68167686      -0.03876300       0.03032800       0.01801400
Ag      -1.72855401       5.30671602      -2.58685811       0.02190100      -0.08282300       0.04063200
Ag       1.44588585       4.44895713      -2.68524058       0.00282500       0.02587900      -0.00205200
Ag       4.52294707       3.27452993      -2.58592235      -0.05953000      -0.05441600       0.04148400
Ag       4.68848047       0.00016810      -2.67870019       0.05457600       0.00102300       0.01478400
Ag       4.52303007      -3.27467872      -2.58597384      -0.05703600       0.05304900       0.04031400
Ag      -0.89457314      -2.74567955      -4.47851607      -0.00916400      -0.01448700      -0.02480700
Ag      -2.89299406      -0.00017349      -4.47760677      -0.01475900      -0.00060000      -0.02007200
Ag      -0.89508678       2.74652050      -4.47897416      -0.01602300       0.01672500      -0.02544000
Ag       2.34481660       1.69249817      -4.47897647       0.03652500      -0.02427800      -0.02797800
Ag       2.34416084      -1.69248156      -4.47884502       0.03092100       0.02386800      -0.02779700
Ag       0.00181130      -0.00028370      -6.04208464       0.00200500      -0.00071000       0.08573500
